*KEYWORD
$
$ File created by cubit version 16.6b
$...>....1....>....2....>....3....>....4....>....5....>....6....>....7....>....8
*TITLE
$ cubit(C:/Users/ZET-A3 Plus/Documents/mesh_6x3_new2.k): 04/26/2019: 15:10:46
*PART
Block 1
$    pid     sid     mid   eosid    hgid    grav  adpopt    tmid
       1       1     100       0       0       0       0     100
*SECTION_SHELL
       1
$     t1      t2      t3      t4
       1       1       1       1

*MAT_ELASTIC
     100   7e-06  206800    0.29     0.0     0.0       0
*MAT_THERMAL_ISOTROPIC
     100     0.0     0.0     0.0     0.0     0.0
     500   0.045
*NODE
$    nid               x               y               z      tc      rc
       1               3             1.5               0       0       0
       3          2.8125             1.5               0       0       0
      97          2.8125          1.3125               0       0       0
      96               3          1.3125               0       0       0
       4           2.625             1.5               0       0       0
      98           2.625          1.3125               0       0       0
       5          2.4375             1.5               0       0       0
      99          2.4375          1.3125               0       0       0
       6            2.25             1.5               0       0       0
     100            2.25          1.3125               0       0       0
       7          2.0625             1.5               0       0       0
     101          2.0625          1.3125               0       0       0
       8           1.875             1.5               0       0       0
     102           1.875          1.3125               0       0       0
       9          1.6875             1.5               0       0       0
     103          1.6875          1.3125               0       0       0
      10             1.5             1.5               0       0       0
     104             1.5          1.3125               0       0       0
      11          1.3125             1.5               0       0       0
     105          1.3125          1.3125               0       0       0
$ ... 541 like lines cut
$
$...>....1....>....2....>....3....>....4....>....5....>....6....>....7....>....8
$    eid     pid      n1      n2      n3      n4      n5      n6      n7      n8
*ELEMENT_SHELL
       1       1       1       3      97      96
       2       1       3       4      98      97
       3       1       4       5      99      98
       4       1       5       6     100      99
       5       1       6       7     101     100
       6       1       7       8     102     101
       7       1       8       9     103     102
       8       1       9      10     104     103
       9       1      10      11     105     104
      10       1      11      12     106     105
      11       1      12      13     107     106
      12       1      13      14     108     107
      13       1      14      15     109     108
      14       1      15      16     110     109
      15       1      16      17     111     110
      16       1      17      18     112     111
      17       1      18      19     113     112
      18       1      19      20     114     113
      19       1      20      21     115     114
      20       1      21      22     116     115
$ ... 492 like lines cut
*END
